908846-88-8.MOL
  PyMOL2.5          3D                             0

 17 19  0  0  0  0  0  0  0  0999 V2000
    0.5310   -0.6333    0.0000 C   0  0  0  0  0  0  0  0  0  0  0  0
    0.5310    0.1917    0.0000 O   0  0  0  0  0  0  0  0  0  0  0  0
   -0.1835   -1.0458    0.0000 O   0  0  0  0  0  0  0  0  0  0  0  0
   -0.8980   -0.6333    0.0000 C   0  0  0  0  0  0  0  0  0  0  0  0
   -1.6125   -1.0458    0.0000 C   0  0  0  0  0  0  0  0  0  0  0  0
   -2.3661   -0.7102    0.0000 C   0  0  0  0  0  0  0  0  0  0  0  0
   -2.6211    0.0744    0.0000 C   0  0  0  0  0  0  0  0  0  0  0  0
   -3.4280    0.2459    0.0000 C   0  0  0  0  0  0  0  0  0  0  0  0
   -3.9801   -0.3672    0.0000 C   0  0  0  0  0  0  0  0  0  0  0  0
   -3.7251   -1.1518    0.0000 C   0  0  0  0  0  0  0  0  0  0  0  0
   -2.9182   -1.3233    0.0000 C   0  0  0  0  0  0  0  0  0  0  0  0
   -2.5057   -2.0378    0.0000 C   0  0  0  0  0  0  0  0  0  0  0  0
   -2.7606   -2.8224    0.0000 C   0  0  0  0  0  0  0  0  0  0  0  0
   -2.2086   -3.4355    0.0000 C   0  0  0  0  0  0  0  0  0  0  0  0
   -1.4016   -3.2640    0.0000 C   0  0  0  0  0  0  0  0  0  0  0  0
   -1.1467   -2.4794    0.0000 C   0  0  0  0  0  0  0  0  0  0  0  0
   -1.6987   -1.8663    0.0000 C   0  0  0  0  0  0  0  0  0  0  0  0
  1  2  2  0  0  0  0
  1  3  1  0  0  0  0
  3  4  1  0  0  0  0
  4  5  1  0  0  0  0
  5  6  1  0  0  0  0
  5 17  1  0  0  0  0
  6  7  1  0  0  0  0
  6 11  2  0  0  0  0
  7  8  2  0  0  0  0
  8  9  1  0  0  0  0
  9 10  2  0  0  0  0
 10 11  1  0  0  0  0
 11 12  1  0  0  0  0
 12 13  1  0  0  0  0
 12 17  2  0  0  0  0
 13 14  2  0  0  0  0
 14 15  1  0  0  0  0
 15 16  2  0  0  0  0
 16 17  1  0  0  0  0
M  END
$$$$
